1
  -OEChem-07152221203D

 49 52  0     1  0  0  0  0  0999 V2000
    5.0900   -0.4580   -0.5430 C   0  0  0  0  0  0  0  0  0  0  0  0
   -3.6240    2.0460    0.2870 C   0  0  0  0  0  0  0  0  0  0  0  0
   -4.9390    1.8470   -0.0460 C   0  0  0  0  0  0  0  0  0  0  0  0
    0.6750   -0.8380    0.6790 C   0  0  0  0  0  0  0  0  0  0  0  0
   -4.4430   -0.4350   -0.5410 C   0  0  0  0  0  0  0  0  0  0  0  0
    2.5210   -2.2020    0.0360 C   0  0  0  0  0  0  0  0  0  0  0  0
    4.0990    0.5180   -0.1990 C   0  0  0  0  0  0  0  0  0  0  0  0
    2.0250   -0.9390    0.3160 C   0  0  0  0  0  0  0  0  0  0  0  0
    2.7840    0.3290    0.1970 C   0  0  0  0  0  0  0  0  0  0  0  0
   -2.6800    1.0020    0.2330 C   0  0  0  0  0  0  0  0  0  0  0  0
   -3.1090   -0.2510   -0.2030 C   0  0  0  0  0  0  0  0  0  0  0  0
   -0.1410   -1.9570    0.6140 C   0  0  0  0  0  0  0  0  0  0  0  0
   -5.3590    0.5940   -0.4610 C   0  0  0  0  0  0  0  0  0  0  0  0
    2.2510    1.6030    0.4760 C   0  0  0  0  0  0  0  0  0  0  0  0
    0.4270   -3.1850    0.3110 C   0  0  0  0  0  0  0  0  0  0  0  0
   -1.3390    1.3270    0.6900 C   0  0  0  0  0  0  0  0  0  0  0  0
    0.9080    1.9910    1.0110 C   0  0  0  0  0  0  0  0  0  0  0  0
   -2.2230   -1.4540   -0.3550 C   0  0  1  0  0  0  0  0  0  0  0  0
   -1.3240   -1.2830   -1.5770 C   0  0  0  0  0  0  0  0  0  0  0  0
    5.5730    2.5130   -0.6620 C   0  0  0  0  0  0  0  0  0  0  0  0
   -0.1310    2.0300   -1.3680 C   0  0  0  0  0  0  0  0  0  0  0  0
    5.8760   -1.2310   -0.8150 N   0  0  0  0  0  0  0  0  0  0  0  0
    1.7250   -3.2630    0.0530 N   0  0  0  0  0  0  0  0  0  0  0  0
    3.1660    2.5090    0.1890 N   0  0  0  0  0  0  0  0  0  0  0  0
    4.3260    1.8710   -0.2410 N   0  0  0  0  0  0  0  0  0  0  0  0
   -0.2240    1.7670    0.0750 N   0  0  0  0  0  0  0  0  0  0  0  0
   -0.3570   -4.3330    0.2790 N   0  0  0  0  0  0  0  0  0  0  0  0
   -1.2190    1.1960    1.9110 O   0  0  0  0  0  0  0  0  0  0  0  0
   -1.4700   -1.7360    0.8260 O   0  0  0  0  0  0  0  0  0  0  0  0
   -6.6540    0.3810   -0.7760 F   0  0  0  0  0  0  0  0  0  0  0  0
   -3.3010    3.0300    0.6030 H   0  0  0  0  0  0  0  0  0  0  0  0
   -5.6480    2.6590    0.0180 H   0  0  0  0  0  0  0  0  0  0  0  0
    0.2690    0.0750    1.0630 H   0  0  0  0  0  0  0  0  0  0  0  0
   -4.7640   -1.4130   -0.8730 H   0  0  0  0  0  0  0  0  0  0  0  0
    3.5600   -2.3720   -0.1860 H   0  0  0  0  0  0  0  0  0  0  0  0
    0.7370    1.4720    1.9500 H   0  0  0  0  0  0  0  0  0  0  0  0
    0.9390    3.0670    1.2370 H   0  0  0  0  0  0  0  0  0  0  0  0
   -2.8780   -2.3220   -0.5490 H   0  0  0  0  0  0  0  0  0  0  0  0
   -0.7060   -0.3940   -1.4530 H   0  0  0  0  0  0  0  0  0  0  0  0
   -0.6830   -2.1590   -1.6820 H   0  0  0  0  0  0  0  0  0  0  0  0
   -1.9410   -1.1760   -2.4700 H   0  0  0  0  0  0  0  0  0  0  0  0
    6.2250    2.6410    0.2020 H   0  0  0  0  0  0  0  0  0  0  0  0
    6.0710    1.8880   -1.4030 H   0  0  0  0  0  0  0  0  0  0  0  0
    5.3510    3.4870   -1.0980 H   0  0  0  0  0  0  0  0  0  0  0  0
   -1.0900    1.8160   -1.8400 H   0  0  0  0  0  0  0  0  0  0  0  0
    0.1270    3.0770   -1.5300 H   0  0  0  0  0  0  0  0  0  0  0  0
    0.6390    1.3950   -1.8050 H   0  0  0  0  0  0  0  0  0  0  0  0
   -1.3060   -4.2780    0.4700 H   0  0  0  0  0  0  0  0  0  0  0  0
    0.0460   -5.1900    0.0670 H   0  0  0  0  0  0  0  0  0  0  0  0
 21 26  1  0  0  0  0
 16 28  2  0  0  0  0
 20 25  1  0  0  0  0
 16 26  1  0  0  0  0
 17 26  1  0  0  0  0
 24 25  1  0  0  0  0
 14 24  2  0  0  0  0
  7 25  1  0  0  0  0
 10 16  1  0  0  0  0
  1  7  1  0  0  0  0
  7  9  2  0  0  0  0
 14 17  1  0  0  0  0
  9 14  1  0  0  0  0
  1 22  3  0  0  0  0
  8  9  1  0  0  0  0
  2 10  2  0  0  0  0
 10 11  1  0  0  0  0
 18 19  1  0  0  0  0
 11 18  1  0  0  0  0
 18 29  1  0  0  0  0
  4  8  2  0  0  0  0
  4 12  1  0  0  0  0
  6  8  1  0  0  0  0
  2  3  1  0  0  0  0
  5 11  2  0  0  0  0
 12 29  1  0  0  0  0
 12 15  2  0  0  0  0
  6 23  2  0  0  0  0
 15 23  1  0  0  0  0
 15 27  1  0  0  0  0
  3 13  2  0  0  0  0
  5 13  1  0  0  0  0
 13 30  1  0  0  0  0
  2 31  1  0  0  0  0
  3 32  1  0  0  0  0
  4 33  1  0  0  0  0
  5 34  1  0  0  0  0
  6 35  1  0  0  0  0
 17 36  1  0  0  0  0
 17 37  1  0  0  0  0
 18 38  1  0  0  0  0
 19 39  1  0  0  0  0
 19 40  1  0  0  0  0
 19 41  1  0  0  0  0
 20 42  1  0  0  0  0
 20 43  1  0  0  0  0
 20 44  1  0  0  0  0
 21 45  1  0  0  0  0
 21 46  1  0  0  0  0
 21 47  1  0  0  0  0
 27 48  1  0  0  0  0
 27 49  1  0  0  0  0
M  END

$$$$

2
  -OEChem-07152221203D

 52 55  0     1  0  0  0  0  0999 V2000
    2.7090    3.0500    0.8020 Cl  0  0  0  0  0  0  0  0  0  0  0  0
    4.0310    1.9710    0.4870 C   0  0  0  0  0  0  0  0  0  0  0  0
    5.3220    2.3430    0.8200 C   0  0  0  0  0  0  0  0  0  0  0  0
    6.3760    1.4840    0.5700 C   0  0  0  0  0  0  0  0  0  0  0  0
    6.1400    0.2510   -0.0140 C   0  0  0  0  0  0  0  0  0  0  0  0
    7.1700   -0.5890   -0.2580 F   0  0  0  0  0  0  0  0  0  0  0  0
    3.7940    0.7370   -0.0910 C   0  0  0  0  0  0  0  0  0  0  0  0
    4.8480   -0.1210   -0.3470 C   0  0  0  0  0  0  0  0  0  0  0  0
    4.5510   -1.6670   -1.0790 Cl  0  0  0  0  0  0  0  0  0  0  0  0
    2.3870    0.3300   -0.4470 C   0  0  1  0  0  0  0  0  0  0  0  0
    2.1960    0.4280   -1.9620 C   0  0  0  0  0  0  0  0  0  0  0  0
    2.1590   -1.0160   -0.0250 O   0  0  0  0  0  0  0  0  0  0  0  0
    0.8720   -1.3750    0.2270 C   0  0  0  0  0  0  0  0  0  0  0  0
   -0.1650   -0.4940   -0.0320 C   0  0  0  0  0  0  0  0  0  0  0  0
    0.5780   -2.6370    0.7460 C   0  0  0  0  0  0  0  0  0  0  0  0
    1.6120   -3.5330    1.0060 N   0  0  0  0  0  0  0  0  0  0  0  0
   -0.6720   -2.9930    0.9930 N   0  0  0  0  0  0  0  0  0  0  0  0
   -1.6850   -2.1800    0.7630 C   0  0  0  0  0  0  0  0  0  0  0  0
   -1.4730   -0.9080    0.2430 C   0  0  0  0  0  0  0  0  0  0  0  0
   -2.6200   -0.0010   -0.0170 C   0  0  0  0  0  0  0  0  0  0  0  0
   -2.5460    1.3050   -0.5390 C   0  0  0  0  0  0  0  0  0  0  0  0
   -3.9360   -0.2830    0.2000 C   0  0  0  0  0  0  0  0  0  0  0  0
   -4.6520    0.8010   -0.1640 N   0  0  0  0  0  0  0  0  0  0  0  0
   -3.7610    1.7790   -0.6220 N   0  0  0  0  0  0  0  0  0  0  0  0
   -6.1090    0.9310   -0.0950 C   0  0  0  0  0  0  0  0  0  0  0  0
   -6.7360    0.3390   -1.3600 C   0  0  0  0  0  0  0  0  0  0  0  0
   -8.2600    0.4230   -1.2560 C   0  0  0  0  0  0  0  0  0  0  0  0
   -8.7120   -0.3180   -0.0710 N   0  0  0  0  0  0  0  0  0  0  0  0
   -8.1610    0.2620    1.1600 C   0  0  0  0  0  0  0  0  0  0  0  0
   -6.6340    0.1730    1.1280 C   0  0  0  0  0  0  0  0  0  0  0  0
    5.5060    3.3050    1.2740 H   0  0  0  0  0  0  0  0  0  0  0  0
    7.3830    1.7750    0.8290 H   0  0  0  0  0  0  0  0  0  0  0  0
    1.6800    0.9920    0.0520 H   0  0  0  0  0  0  0  0  0  0  0  0
    2.3700    1.4550   -2.2840 H   0  0  0  0  0  0  0  0  0  0  0  0
    2.9030   -0.2340   -2.4610 H   0  0  0  0  0  0  0  0  0  0  0  0
    1.1790    0.1340   -2.2200 H   0  0  0  0  0  0  0  0  0  0  0  0
    0.0310    0.4880   -0.4370 H   0  0  0  0  0  0  0  0  0  0  0  0
    2.5310   -3.2770    0.8270 H   0  0  0  0  0  0  0  0  0  0  0  0
    1.4140   -4.4110    1.3660 H   0  0  0  0  0  0  0  0  0  0  0  0
   -2.6920   -2.5070    0.9770 H   0  0  0  0  0  0  0  0  0  0  0  0
   -1.6420    1.8250   -0.8220 H   0  0  0  0  0  0  0  0  0  0  0  0
   -4.3340   -1.2070    0.5930 H   0  0  0  0  0  0  0  0  0  0  0  0
   -6.3770    1.9850   -0.0140 H   0  0  0  0  0  0  0  0  0  0  0  0
   -6.3990    0.9020   -2.2310 H   0  0  0  0  0  0  0  0  0  0  0  0
   -6.4350   -0.7040   -1.4620 H   0  0  0  0  0  0  0  0  0  0  0  0
   -6.3310   -0.8720    1.0650 H   0  0  0  0  0  0  0  0  0  0  0  0
   -6.2240    0.6180    2.0350 H   0  0  0  0  0  0  0  0  0  0  0  0
   -8.5620    1.4670   -1.1680 H   0  0  0  0  0  0  0  0  0  0  0  0
   -8.7100   -0.0110   -2.1490 H   0  0  0  0  0  0  0  0  0  0  0  0
   -9.7200   -0.3580   -0.0320 H   0  0  0  0  0  0  0  0  0  0  0  0
   -8.4630    1.3060    1.2370 H   0  0  0  0  0  0  0  0  0  0  0  0
   -8.5380   -0.2890    2.0220 H   0  0  0  0  0  0  0  0  0  0  0  0
  1  2  1  0  0  0  0
  2  3  1  0  0  0  0
  2  7  2  0  0  0  0
  3  4  2  0  0  0  0
  4  5  1  0  0  0  0
  5  6  1  0  0  0  0
  5  8  2  0  0  0  0
  7  8  1  0  0  0  0
  7 10  1  0  0  0  0
  8  9  1  0  0  0  0
 10 11  1  0  0  0  0
 10 12  1  0  0  0  0
 12 13  1  0  0  0  0
 13 14  2  0  0  0  0
 13 15  1  0  0  0  0
 14 19  1  0  0  0  0
 15 16  1  0  0  0  0
 15 17  2  0  0  0  0
 17 18  1  0  0  0  0
 18 19  2  0  0  0  0
 19 20  1  0  0  0  0
 20 21  1  0  0  0  0
 20 22  2  0  0  0  0
 21 24  2  0  0  0  0
 22 23  1  0  0  0  0
 23 24  1  0  0  0  0
 23 25  1  0  0  0  0
 25 26  1  0  0  0  0
 25 30  1  0  0  0  0
 26 27  1  0  0  0  0
 27 28  1  0  0  0  0
 28 29  1  0  0  0  0
 29 30  1  0  0  0  0
  3 31  1  0  0  0  0
  4 32  1  0  0  0  0
 10 33  1  0  0  0  0
 11 34  1  0  0  0  0
 11 35  1  0  0  0  0
 11 36  1  0  0  0  0
 14 37  1  0  0  0  0
 16 38  1  0  0  0  0
 16 39  1  0  0  0  0
 18 40  1  0  0  0  0
 21 41  1  0  0  0  0
 22 42  1  0  0  0  0
 25 43  1  0  0  0  0
 26 44  1  0  0  0  0
 26 45  1  0  0  0  0
 30 46  1  0  0  0  0
 30 47  1  0  0  0  0
 27 48  1  0  0  0  0
 27 49  1  0  0  0  0
 28 50  1  0  0  0  0
 29 51  1  0  0  0  0
 29 52  1  0  0  0  0
M  END

$$$$